prot1
  PyMOL2.5          3D                             0

 45 49  0  0  0  0  0  0  0  0999 V2000
    9.4980   23.9830    4.4590 C   0  0  0  0  0  0  0  0  0  0  0  0
    9.2800   23.7630    3.0040 N   0  0  0  0  0  0  0  0  0  0  0  0
   10.9370   23.8490    7.0570 O   0  0  0  0  0  0  0  0  0  0  0  0
   10.5910   24.9050    4.9620 C   0  0  0  0  0  0  0  0  0  0  0  0
   10.1930   25.9530    7.0940 N   0  0  0  0  0  0  0  0  0  0  0  0
   15.2420   24.8840    4.6340 O   0  0  0  0  0  0  0  0  0  0  0  0
   10.5910   24.8640    6.4660 C   0  0  0  0  0  0  0  0  0  0  0  0
   11.8190   24.2820    4.3550 N   0  0  0  0  0  0  0  0  0  0  0  0
   14.3670   20.8310    6.3970 O   0  0  0  0  0  0  0  0  0  0  0  0
   10.1450   26.2500    8.4900 C   0  0  0  0  0  0  0  0  0  0  0  0
   16.5830   20.9130    5.9240 N   0  0  0  0  0  0  0  0  0  0  0  0
   19.0610   19.9380    5.7290 O   0  0  0  0  0  0  0  0  0  0  0  0
    9.3790   27.5770    8.6410 C   0  0  0  0  0  0  0  0  0  0  0  0
    4.9110   25.4300    2.3000 N   0  0  0  0  0  0  0  0  0  0  0  0
   11.3980   26.3470    9.0740 C   0  0  0  0  0  0  0  0  0  0  0  0
    9.3640   25.2830    9.2680 C   0  0  0  0  0  0  0  0  0  0  0  0
   11.7530   23.7760    2.9610 C   0  0  0  0  0  0  0  0  0  0  0  0
   10.4400   23.1820    2.4930 C   0  0  0  0  0  0  0  0  0  0  0  0
   13.0830   24.9630    4.5520 C   0  0  0  0  0  0  0  0  0  0  0  0
   14.2030   24.0640    5.0780 C   0  0  0  0  0  0  0  0  0  0  0  0
   14.4400   23.7610    6.5690 C   0  0  0  0  0  0  0  0  0  0  0  0
   15.5730   22.8210    7.0050 C   0  0  0  0  0  0  0  0  0  0  0  0
   15.6440   22.6640    8.5340 C   0  0  0  0  0  0  0  0  0  0  0  0
   16.7330   21.7500    8.9610 C   0  0  0  0  0  0  0  0  0  0  0  0
   18.0580   21.9160    8.5530 C   0  0  0  0  0  0  0  0  0  0  0  0
   19.0370   21.0160    8.9470 C   0  0  0  0  0  0  0  0  0  0  0  0
   18.6730   19.9390    9.7580 C   0  0  0  0  0  0  0  0  0  0  0  0
   17.3470   19.7730   10.1760 C   0  0  0  0  0  0  0  0  0  0  0  0
   16.3740   20.6870    9.7720 C   0  0  0  0  0  0  0  0  0  0  0  0
   15.4470   21.4400    6.3730 C   0  0  0  0  0  0  0  0  0  0  0  0
   16.6920   19.5000    5.6040 C   0  0  0  0  0  0  0  0  0  0  0  0
   18.0670   18.9450    5.9360 C   0  0  0  0  0  0  0  0  0  0  0  0
   18.2260   17.7260    5.0570 C   0  0  0  0  0  0  0  0  0  0  0  0
   17.4760   17.9040    3.7600 C   0  0  0  0  0  0  0  0  0  0  0  0
   17.5000   17.3630    2.4960 C   0  0  0  0  0  0  0  0  0  0  0  0
   16.6130   17.8720    1.5410 C   0  0  0  0  0  0  0  0  0  0  0  0
   15.7220   18.9060    1.8650 C   0  0  0  0  0  0  0  0  0  0  0  0
   15.6830   19.4790    3.1290 C   0  0  0  0  0  0  0  0  0  0  0  0
   16.5040   19.0610    4.1280 C   0  0  0  0  0  0  0  0  0  0  0  0
    8.0330   23.1000    2.6040 C   0  0  0  0  0  0  0  0  0  0  0  0
    6.6660   23.7390    2.8760 C   0  0  0  0  0  0  0  0  0  0  0  0
    6.1580   24.8080    2.1240 C   0  0  0  0  0  0  0  0  0  0  0  0
    4.2070   24.8390    3.3480 C   0  0  0  0  0  0  0  0  0  0  0  0
    4.6540   23.7740    4.1360 C   0  0  0  0  0  0  0  0  0  0  0  0
    5.9050   23.2110    3.8970 C   0  0  0  0  0  0  0  0  0  0  0  0
  1  4  1  0  0  0  0
  1  2  1  0  0  0  0
  2 18  1  0  0  0  0
  2 40  1  0  0  0  0
  4  7  1  0  0  0  0
  4  8  1  0  0  0  0
  5 10  1  0  0  0  0
  3  7  2  0  0  0  0
  5  7  1  0  0  0  0
  8 17  1  0  0  0  0
  8 19  1  0  0  0  0
 10 13  1  0  0  0  0
 10 15  1  0  0  0  0
 10 16  1  0  0  0  0
 11 31  1  0  0  0  0
 14 43  4  0  0  0  0
 17 18  1  0  0  0  0
 19 20  1  0  0  0  0
  6 20  1  0  0  0  0
 20 21  1  0  0  0  0
 21 22  1  0  0  0  0
 22 23  1  0  0  0  0
 22 30  1  0  0  0  0
 23 24  1  0  0  0  0
 24 25  4  0  0  0  0
 24 29  4  0  0  0  0
 25 26  4  0  0  0  0
 26 27  4  0  0  0  0
 27 28  4  0  0  0  0
 28 29  4  0  0  0  0
  9 30  2  0  0  0  0
 11 30  1  0  0  0  0
 31 32  1  0  0  0  0
 31 39  1  0  0  0  0
 12 32  1  0  0  0  0
 32 33  1  0  0  0  0
 33 34  1  0  0  0  0
 34 35  4  0  0  0  0
 34 39  4  0  0  0  0
 35 36  4  0  0  0  0
 36 37  4  0  0  0  0
 37 38  4  0  0  0  0
 38 39  4  0  0  0  0
 40 41  1  0  0  0  0
 41 42  4  0  0  0  0
 41 45  4  0  0  0  0
 14 42  4  0  0  0  0
 43 44  4  0  0  0  0
 44 45  4  0  0  0  0
M  END
$$$$
