MODEL 1
REMARK VINA RESULT:     -11.5      0.000      0.000
REMARK  14 active torsions:
REMARK  status: ('A' for Active; 'I' for Inactive)
REMARK    1  A    between atoms: N_2  and  C_41 
REMARK    2  A    between atoms: C_4  and  C_7 
REMARK    3  A    between atoms: N_5  and  C_10 
REMARK       I    between atoms: N_5  and  C_7 
REMARK    4  A    between atoms: O_6  and  C_21 
REMARK    5  A    between atoms: N_8  and  C_20 
REMARK    6  A    between atoms: N_11  and  C_32 
REMARK       I    between atoms: N_11  and  C_31 
REMARK    7  A    between atoms: O_12  and  C_33 
REMARK    8  A    between atoms: C_20  and  C_21 
REMARK    9  A    between atoms: C_21  and  C_22 
REMARK   10  A    between atoms: C_22  and  C_23 
REMARK   11  A    between atoms: C_23  and  C_24 
REMARK   12  A    between atoms: C_23  and  C_31 
REMARK   13  A    between atoms: C_24  and  C_25 
REMARK   14  A    between atoms: C_41  and  C_42 
ROOT
HETATM    1  C   UNK N   1      14.192  23.998   5.067  0.00  0.00     0.147 C 
ENDROOT
BRANCH   1   2
HETATM    2  C   UNK N   1      12.958  24.855   4.799  0.00  0.00     0.305 C 
BRANCH   2   3
HETATM    3  N   UNK N   1      11.779  24.017   4.596  0.00  0.00     0.108 N 
HETATM    4  C   UNK N   1      10.576  24.690   5.121  0.00  0.00     0.342 C 
HETATM    5  C   UNK N   1       9.337  23.860   4.779  0.00  0.00     0.318 C 
HETATM    6  N   UNK N   1       9.197  23.746   3.328  0.00  0.00     0.097 N 
HETATM    7  C   UNK N   1      10.379  23.060   2.810  0.00  0.00     0.303 C 
HETATM    8  C   UNK N   1      11.638  23.860   3.146  0.00  0.00     0.303 C 
BRANCH   4   9
HETATM    9  C   UNK N   1      10.626  24.868   6.609  0.00  0.00     0.253 C 
HETATM   10  O   UNK N   1      10.768  23.893   7.339  0.00  0.00    -0.271 OA
HETATM   11  N   UNK N   1      10.448  26.108   7.134  0.00  0.00    -0.351 N 
HETATM   12  H   UNK N   1      10.324  26.857   6.506  0.00  0.00     0.163 HD
BRANCH  11  13
HETATM   13  C   UNK N   1      10.429  26.408   8.553  0.00  0.00     0.022 C 
HETATM   14  C   UNK N   1      10.096  27.874   8.735  0.00  0.00     0.037 C 
HETATM   15  C   UNK N   1      11.788  26.140   9.172  0.00  0.00     0.037 C 
HETATM   16  C   UNK N   1       9.365  25.590   9.268  0.00  0.00     0.037 C 
ENDBRANCH  11  13
ENDBRANCH   4   9
BRANCH   6  17
HETATM   17  C   UNK N   1       8.052  22.885   3.053  0.00  0.00     0.312 C 
BRANCH  17  18
HETATM   18  C   UNK N   1       6.827  23.678   2.719  0.00  0.00    -0.015 A 
HETATM   19  C   UNK N   1       5.742  23.734   3.601  0.00  0.00     0.096 A 
HETATM   20  N   UNK N   1       4.644  24.473   3.284  0.00  0.00    -0.375 N 
HETATM   21  C   UNK N   1       4.567  25.171   2.119  0.00  0.00     0.087 A 
ATOM     22  HN  UNK N   1       3.860  24.505   3.937  1.00  0.00     0.164 HD
HETATM   23  C   UNK N   1       5.631  25.140   1.213  0.00  0.00     0.018 A 
HETATM   24  C   UNK N   1       6.767  24.390   1.519  0.00  0.00     0.011 A 
ENDBRANCH  17  18
ENDBRANCH   6  17
ENDBRANCH   2   3
ENDBRANCH   1   2
BRANCH   1  25
HETATM   25  O   UNK N   1      15.328  24.722   4.704  0.00  0.00    -0.394 OA
HETATM   26  H   UNK N   1      15.772  24.278   3.964  0.00  0.00     0.210 HD
ENDBRANCH   1  25
BRANCH   1  27
HETATM   27  C   UNK N   1      14.257  23.664   6.554  0.00  0.00     0.047 C 
BRANCH  27  28
HETATM   28  C   UNK N   1      15.507  22.876   6.951  0.00  0.00     0.084 C 
BRANCH  28  29
HETATM   29  C   UNK N   1      15.584  22.828   8.483  0.00  0.00     0.052 C 
BRANCH  29  30
HETATM   30  C   UNK N   1      16.637  21.880   8.981  0.00  0.00    -0.057 A 
HETATM   31  C   UNK N   1      17.995  22.113   8.721  0.00  0.00     0.007 A 
HETATM   32  C   UNK N   1      18.957  21.195   9.158  0.00  0.00     0.001 A 
HETATM   33  C   UNK N   1      18.565  20.043   9.847  0.00  0.00     0.000 A 
HETATM   34  C   UNK N   1      17.212  19.812  10.108  0.00  0.00     0.001 A 
HETATM   35  C   UNK N   1      16.249  20.728   9.675  0.00  0.00     0.007 A 
ENDBRANCH  29  30
ENDBRANCH  28  29
BRANCH  28  36
HETATM   36  C   UNK N   1      15.502  21.476   6.396  0.00  0.00     0.222 C 
HETATM   37  O   UNK N   1      14.523  20.761   6.556  0.00  0.00    -0.273 OA
HETATM   38  N   UNK N   1      16.636  20.979   5.846  0.00  0.00    -0.350 N 
HETATM   39  H   UNK N   1      17.383  21.588   5.640  0.00  0.00     0.163 HD
BRANCH  38  40
HETATM   40  C   UNK N   1      16.769  19.568   5.553  0.00  0.00     0.147 C 
HETATM   41  C   UNK N   1      18.215  19.063   5.828  0.00  0.00     0.149 C 
HETATM   42  C   UNK N   1      18.564  18.083   4.691  0.00  0.00     0.073 C 
HETATM   43  C   UNK N   1      17.552  18.403   3.665  0.00  0.00    -0.047 A 
HETATM   44  C   UNK N   1      17.513  17.896   2.366  0.00  0.00     0.008 A 
HETATM   45  C   UNK N   1      16.571  19.233   4.131  0.00  0.00    -0.027 A 
HETATM   46  C   UNK N   1      16.448  18.264   1.531  0.00  0.00     0.001 A 
HETATM   47  C   UNK N   1      15.434  19.114   2.014  0.00  0.00     0.001 A 
HETATM   48  C   UNK N   1      15.487  19.595   3.331  0.00  0.00     0.010 A 
BRANCH  41  49
HETATM   49  O   UNK N   1      19.128  20.121   5.755  0.00  0.00    -0.393 OA
HETATM   50  H   UNK N   1      20.014  19.802   5.990  0.00  0.00     0.210 HD
ENDBRANCH  41  49
ENDBRANCH  38  40
ENDBRANCH  28  36
ENDBRANCH  27  28
ENDBRANCH   1  27
TORSDOF 14
ENDMDL
MODEL 2
REMARK VINA RESULT:     -10.4      1.932     10.886
REMARK  14 active torsions:
REMARK  status: ('A' for Active; 'I' for Inactive)
REMARK    1  A    between atoms: N_2  and  C_41 
REMARK    2  A    between atoms: C_4  and  C_7 
REMARK    3  A    between atoms: N_5  and  C_10 
REMARK       I    between atoms: N_5  and  C_7 
REMARK    4  A    between atoms: O_6  and  C_21 
REMARK    5  A    between atoms: N_8  and  C_20 
REMARK    6  A    between atoms: N_11  and  C_32 
REMARK       I    between atoms: N_11  and  C_31 
REMARK    7  A    between atoms: O_12  and  C_33 
REMARK    8  A    between atoms: C_20  and  C_21 
REMARK    9  A    between atoms: C_21  and  C_22 
REMARK   10  A    between atoms: C_22  and  C_23 
REMARK   11  A    between atoms: C_23  and  C_24 
REMARK   12  A    between atoms: C_23  and  C_31 
REMARK   13  A    between atoms: C_24  and  C_25 
REMARK   14  A    between atoms: C_41  and  C_42 
ROOT
HETATM    1  C   UNK N   1      13.978  24.040   5.020  0.00  0.00     0.147 C 
ENDROOT
BRANCH   1   2
HETATM    2  C   UNK N   1      15.197  23.170   5.314  0.00  0.00     0.305 C 
BRANCH   2   3
HETATM    3  N   UNK N   1      14.996  22.393   6.534  0.00  0.00     0.108 N 
HETATM    4  C   UNK N   1      15.826  21.173   6.507  0.00  0.00     0.342 C 
HETATM    5  C   UNK N   1      15.706  20.444   7.846  0.00  0.00     0.318 C 
HETATM    6  N   UNK N   1      16.193  21.300   8.926  0.00  0.00     0.097 N 
HETATM    7  C   UNK N   1      15.358  22.499   8.968  0.00  0.00     0.303 C 
HETATM    8  C   UNK N   1      15.447  23.246   7.637  0.00  0.00     0.303 C 
BRANCH   4   9
HETATM    9  C   UNK N   1      15.413  20.227   5.419  0.00  0.00     0.253 C 
HETATM   10  O   UNK N   1      14.277  19.767   5.405  0.00  0.00    -0.271 OA
HETATM   11  N   UNK N   1      16.330  19.842   4.493  0.00  0.00    -0.351 N 
HETATM   12  H   UNK N   1      17.233  20.229   4.556  0.00  0.00     0.163 HD
BRANCH  11  13
HETATM   13  C   UNK N   1      16.072  18.900   3.420  0.00  0.00     0.022 C 
HETATM   14  C   UNK N   1      17.374  18.618   2.700  0.00  0.00     0.037 C 
HETATM   15  C   UNK N   1      15.085  19.485   2.426  0.00  0.00     0.037 C 
HETATM   16  C   UNK N   1      15.539  17.585   3.966  0.00  0.00     0.037 C 
ENDBRANCH  11  13
ENDBRANCH   4   9
BRANCH   6  17
HETATM   17  C   UNK N   1      15.987  20.595  10.187  0.00  0.00     0.312 C 
BRANCH  17  18
HETATM   18  C   UNK N   1      16.973  19.485  10.371  0.00  0.00    -0.015 A 
HETATM   19  C   UNK N   1      18.346  19.707  10.213  0.00  0.00     0.096 A 
HETATM   20  N   UNK N   1      19.228  18.686  10.400  0.00  0.00    -0.375 N 
HETATM   21  C   UNK N   1      18.809  17.438  10.742  0.00  0.00     0.087 A 
ATOM     22  HN  UNK N   1      20.226  18.863  10.280  1.00  0.00     0.164 HD
HETATM   23  C   UNK N   1      17.446  17.178  10.911  0.00  0.00     0.018 A 
HETATM   24  C   UNK N   1      16.526  18.210  10.725  0.00  0.00     0.011 A 
ENDBRANCH  17  18
ENDBRANCH   6  17
ENDBRANCH   2   3
ENDBRANCH   1   2
BRANCH   1  25
HETATM   25  O   UNK N   1      14.413  25.257   4.492  0.00  0.00    -0.394 OA
HETATM   26  H   UNK N   1      14.151  25.979   5.084  0.00  0.00     0.210 HD
ENDBRANCH   1  25
BRANCH   1  27
HETATM   27  C   UNK N   1      13.091  23.333   4.002  0.00  0.00     0.047 C 
BRANCH  27  28
HETATM   28  C   UNK N   1      11.838  24.126   3.625  0.00  0.00     0.084 C 
BRANCH  28  29
HETATM   29  C   UNK N   1      11.031  23.306   2.609  0.00  0.00     0.052 C 
BRANCH  29  30
HETATM   30  C   UNK N   1       9.676  23.893   2.336  0.00  0.00    -0.057 A 
HETATM   31  C   UNK N   1       8.512  23.132   2.516  0.00  0.00     0.007 A 
HETATM   32  C   UNK N   1       7.262  23.684   2.215  0.00  0.00     0.001 A 
HETATM   33  C   UNK N   1       7.173  24.993   1.731  0.00  0.00     0.000 A 
HETATM   34  C   UNK N   1       8.332  25.753   1.553  0.00  0.00     0.001 A 
HETATM   35  C   UNK N   1       9.581  25.204   1.854  0.00  0.00     0.007 A 
ENDBRANCH  29  30
ENDBRANCH  28  29
BRANCH  28  36
HETATM   36  C   UNK N   1      10.979  24.443   4.821  0.00  0.00     0.222 C 
HETATM   37  O   UNK N   1      10.573  23.538   5.537  0.00  0.00    -0.273 OA
HETATM   38  N   UNK N   1      10.553  25.716   5.011  0.00  0.00    -0.350 N 
HETATM   39  H   UNK N   1      10.957  26.446   4.487  0.00  0.00     0.163 HD
BRANCH  38  40
HETATM   40  C   UNK N   1       9.515  26.021   5.972  0.00  0.00     0.147 C 
HETATM   41  C   UNK N   1       8.567  27.139   5.450  0.00  0.00     0.149 C 
HETATM   42  C   UNK N   1       8.251  28.048   6.654  0.00  0.00     0.073 C 
HETATM   43  C   UNK N   1       9.313  27.692   7.616  0.00  0.00    -0.047 A 
HETATM   44  C   UNK N   1       9.572  28.337   8.825  0.00  0.00     0.008 A 
HETATM   45  C   UNK N   1      10.021  26.586   7.236  0.00  0.00    -0.027 A 
HETATM   46  C   UNK N   1      10.589  27.836   9.651  0.00  0.00     0.001 A 
HETATM   47  C   UNK N   1      11.314  26.693   9.262  0.00  0.00     0.001 A 
HETATM   48  C   UNK N   1      11.021  26.052   8.049  0.00  0.00     0.010 A 
BRANCH  41  49
HETATM   49  O   UNK N   1       9.216  27.930   4.495  0.00  0.00    -0.393 OA
HETATM   50  H   UNK N   1      10.153  28.021   4.732  0.00  0.00     0.210 HD
ENDBRANCH  41  49
ENDBRANCH  38  40
ENDBRANCH  28  36
ENDBRANCH  27  28
ENDBRANCH   1  27
TORSDOF 14
ENDMDL
MODEL 3
REMARK VINA RESULT:     -10.2      1.991     10.193
REMARK  14 active torsions:
REMARK  status: ('A' for Active; 'I' for Inactive)
REMARK    1  A    between atoms: N_2  and  C_41 
REMARK    2  A    between atoms: C_4  and  C_7 
REMARK    3  A    between atoms: N_5  and  C_10 
REMARK       I    between atoms: N_5  and  C_7 
REMARK    4  A    between atoms: O_6  and  C_21 
REMARK    5  A    between atoms: N_8  and  C_20 
REMARK    6  A    between atoms: N_11  and  C_32 
REMARK       I    between atoms: N_11  and  C_31 
REMARK    7  A    between atoms: O_12  and  C_33 
REMARK    8  A    between atoms: C_20  and  C_21 
REMARK    9  A    between atoms: C_21  and  C_22 
REMARK   10  A    between atoms: C_22  and  C_23 
REMARK   11  A    between atoms: C_23  and  C_24 
REMARK   12  A    between atoms: C_23  and  C_31 
REMARK   13  A    between atoms: C_24  and  C_25 
REMARK   14  A    between atoms: C_41  and  C_42 
ROOT
HETATM    1  C   UNK N   1      13.773  23.018   4.504  0.00  0.00     0.147 C 
ENDROOT
BRANCH   1   2
HETATM    2  C   UNK N   1      15.119  22.901   5.212  0.00  0.00     0.305 C 
BRANCH   2   3
HETATM    3  N   UNK N   1      14.979  22.182   6.475  0.00  0.00     0.108 N 
HETATM    4  C   UNK N   1      15.892  21.024   6.509  0.00  0.00     0.342 C 
HETATM    5  C   UNK N   1      15.830  20.364   7.888  0.00  0.00     0.318 C 
HETATM    6  N   UNK N   1      16.261  21.311   8.915  0.00  0.00     0.097 N 
HETATM    7  C   UNK N   1      15.343  22.449   8.897  0.00  0.00     0.303 C 
HETATM    8  C   UNK N   1      15.374  23.125   7.525  0.00  0.00     0.303 C 
BRANCH   4   9
HETATM    9  C   UNK N   1      15.542  19.991   5.479  0.00  0.00     0.253 C 
HETATM   10  O   UNK N   1      14.517  19.331   5.597  0.00  0.00    -0.271 OA
HETATM   11  N   UNK N   1      16.405  19.758   4.455  0.00  0.00    -0.351 N 
HETATM   12  H   UNK N   1      17.222  20.306   4.413  0.00  0.00     0.163 HD
BRANCH  11  13
HETATM   13  C   UNK N   1      16.207  18.760   3.422  0.00  0.00     0.022 C 
HETATM   14  C   UNK N   1      17.523  18.534   2.708  0.00  0.00     0.037 C 
HETATM   15  C   UNK N   1      15.182  19.238   2.410  0.00  0.00     0.037 C 
HETATM   16  C   UNK N   1      15.762  17.435   4.022  0.00  0.00     0.037 C 
ENDBRANCH  11  13
ENDBRANCH   4   9
BRANCH   6  17
HETATM   17  C   UNK N   1      16.110  20.666  10.214  0.00  0.00     0.312 C 
BRANCH  17  18
HETATM   18  C   UNK N   1      17.047  19.509  10.373  0.00  0.00    -0.015 A 
HETATM   19  C   UNK N   1      18.424  19.666  10.181  0.00  0.00     0.096 A 
HETATM   20  N   UNK N   1      19.261  18.604  10.344  0.00  0.00    -0.375 N 
HETATM   21  C   UNK N   1      18.792  17.376  10.695  0.00  0.00     0.087 A 
ATOM     22  HN  UNK N   1      20.263  18.733  10.201  1.00  0.00     0.164 HD
HETATM   23  C   UNK N   1      17.422  17.181  10.896  0.00  0.00     0.018 A 
HETATM   24  C   UNK N   1      16.548  18.256  10.735  0.00  0.00     0.011 A 
ENDBRANCH  17  18
ENDBRANCH   6  17
ENDBRANCH   2   3
ENDBRANCH   1   2
BRANCH   1  25
HETATM   25  O   UNK N   1      13.882  22.448   3.235  0.00  0.00    -0.394 OA
HETATM   26  H   UNK N   1      14.258  23.098   2.620  0.00  0.00     0.210 HD
ENDBRANCH   1  25
BRANCH   1  27
HETATM   27  C   UNK N   1      12.716  22.267   5.307  0.00  0.00     0.047 C 
BRANCH  27  28
HETATM   28  C   UNK N   1      11.403  23.036   5.464  0.00  0.00     0.084 C 
BRANCH  28  29
HETATM   29  C   UNK N   1      11.732  24.519   5.686  0.00  0.00     0.052 C 
BRANCH  29  30
HETATM   30  C   UNK N   1      11.363  24.994   7.062  0.00  0.00    -0.057 A 
HETATM   31  C   UNK N   1      12.332  25.523   7.925  0.00  0.00     0.007 A 
HETATM   32  C   UNK N   1      11.975  25.921   9.218  0.00  0.00     0.001 A 
HETATM   33  C   UNK N   1      10.652  25.786   9.652  0.00  0.00     0.000 A 
HETATM   34  C   UNK N   1       9.684  25.261   8.792  0.00  0.00     0.001 A 
HETATM   35  C   UNK N   1      10.039  24.864   7.499  0.00  0.00     0.007 A 
ENDBRANCH  29  30
ENDBRANCH  28  29
BRANCH  28  36
HETATM   36  C   UNK N   1      10.505  22.887   4.264  0.00  0.00     0.222 C 
HETATM   37  O   UNK N   1      10.724  22.005   3.445  0.00  0.00    -0.273 OA
HETATM   38  N   UNK N   1       9.548  23.819   4.034  0.00  0.00    -0.350 N 
HETATM   39  H   UNK N   1       9.322  24.466   4.741  0.00  0.00     0.163 HD
BRANCH  38  40
HETATM   40  C   UNK N   1       8.851  23.878   2.768  0.00  0.00     0.147 C 
HETATM   41  C   UNK N   1       9.194  25.180   1.989  0.00  0.00     0.149 C 
HETATM   42  C   UNK N   1       7.883  25.667   1.342  0.00  0.00     0.073 C 
HETATM   43  C   UNK N   1       6.854  24.928   2.101  0.00  0.00    -0.047 A 
HETATM   44  C   UNK N   1       5.475  25.117   2.008  0.00  0.00     0.008 A 
HETATM   45  C   UNK N   1       7.384  23.953   2.899  0.00  0.00    -0.027 A 
HETATM   46  C   UNK N   1       4.630  24.290   2.763  0.00  0.00     0.001 A 
HETATM   47  C   UNK N   1       5.176  23.282   3.580  0.00  0.00     0.001 A 
HETATM   48  C   UNK N   1       6.566  23.101   3.641  0.00  0.00     0.010 A 
BRANCH  41  49
HETATM   49  O   UNK N   1       9.619  26.182   2.868  0.00  0.00    -0.393 OA
HETATM   50  H   UNK N   1       9.702  25.815   3.762  0.00  0.00     0.210 HD
ENDBRANCH  41  49
ENDBRANCH  38  40
ENDBRANCH  28  36
ENDBRANCH  27  28
ENDBRANCH   1  27
TORSDOF 14
ENDMDL
MODEL 4
REMARK VINA RESULT:     -10.2      1.447      4.259
REMARK  14 active torsions:
REMARK  status: ('A' for Active; 'I' for Inactive)
REMARK    1  A    between atoms: N_2  and  C_41 
REMARK    2  A    between atoms: C_4  and  C_7 
REMARK    3  A    between atoms: N_5  and  C_10 
REMARK       I    between atoms: N_5  and  C_7 
REMARK    4  A    between atoms: O_6  and  C_21 
REMARK    5  A    between atoms: N_8  and  C_20 
REMARK    6  A    between atoms: N_11  and  C_32 
REMARK       I    between atoms: N_11  and  C_31 
REMARK    7  A    between atoms: O_12  and  C_33 
REMARK    8  A    between atoms: C_20  and  C_21 
REMARK    9  A    between atoms: C_21  and  C_22 
REMARK   10  A    between atoms: C_22  and  C_23 
REMARK   11  A    between atoms: C_23  and  C_24 
REMARK   12  A    between atoms: C_23  and  C_31 
REMARK   13  A    between atoms: C_24  and  C_25 
REMARK   14  A    between atoms: C_41  and  C_42 
ROOT
HETATM    1  C   UNK N   1      13.831  23.743   6.008  0.00  0.00     0.147 C 
ENDROOT
BRANCH   1   2
HETATM    2  C   UNK N   1      12.955  24.536   5.043  0.00  0.00     0.305 C 
BRANCH   2   3
HETATM    3  N   UNK N   1      11.727  23.807   4.740  0.00  0.00     0.108 N 
HETATM    4  C   UNK N   1      10.548  24.623   5.087  0.00  0.00     0.342 C 
HETATM    5  C   UNK N   1       9.276  23.900   4.640  0.00  0.00     0.318 C 
HETATM    6  N   UNK N   1       9.290  23.718   3.189  0.00  0.00     0.097 N 
HETATM    7  C   UNK N   1      10.445  22.890   2.846  0.00  0.00     0.303 C 
HETATM    8  C   UNK N   1      11.735  23.582   3.292  0.00  0.00     0.303 C 
BRANCH   4   9
HETATM    9  C   UNK N   1      10.447  24.880   6.562  0.00  0.00     0.253 C 
HETATM   10  O   UNK N   1      10.385  23.940   7.345  0.00  0.00    -0.271 OA
HETATM   11  N   UNK N   1      10.362  26.161   7.006  0.00  0.00    -0.351 N 
HETATM   12  H   UNK N   1      10.403  26.881   6.336  0.00  0.00     0.163 HD
BRANCH  11  13
HETATM   13  C   UNK N   1      10.216  26.543   8.398  0.00  0.00     0.022 C 
HETATM   14  C   UNK N   1       9.908  28.024   8.465  0.00  0.00     0.037 C 
HETATM   15  C   UNK N   1      11.503  26.280   9.159  0.00  0.00     0.037 C 
HETATM   16  C   UNK N   1       9.067  25.791   9.051  0.00  0.00     0.037 C 
ENDBRANCH  11  13
ENDBRANCH   4   9
BRANCH   6  17
HETATM   17  C   UNK N   1       8.100  22.958   2.820  0.00  0.00     0.312 C 
BRANCH  17  18
HETATM   18  C   UNK N   1       6.843  23.702   3.143  0.00  0.00    -0.015 A 
HETATM   19  C   UNK N   1       6.698  25.053   2.806  0.00  0.00     0.096 A 
HETATM   20  N   UNK N   1       5.540  25.708   3.096  0.00  0.00    -0.375 N 
HETATM   21  C   UNK N   1       4.502  25.079   3.711  0.00  0.00     0.087 A 
ATOM     22  HN  UNK N   1       5.449  26.693   2.845  1.00  0.00     0.164 HD
HETATM   23  C   UNK N   1       4.608  23.731   4.061  0.00  0.00     0.018 A 
HETATM   24  C   UNK N   1       5.786  23.041   3.773  0.00  0.00     0.011 A 
ENDBRANCH  17  18
ENDBRANCH   6  17
ENDBRANCH   2   3
ENDBRANCH   1   2
BRANCH   1  25
HETATM   25  O   UNK N   1      13.969  24.472   7.191  0.00  0.00    -0.394 OA
HETATM   26  H   UNK N   1      13.152  24.967   7.362  0.00  0.00     0.210 HD
ENDBRANCH   1  25
BRANCH   1  27
HETATM   27  C   UNK N   1      13.162  22.407   6.311  0.00  0.00     0.047 C 
BRANCH  27  28
HETATM   28  C   UNK N   1      14.150  21.253   6.490  0.00  0.00     0.084 C 
BRANCH  28  29
HETATM   29  C   UNK N   1      15.207  21.341   5.380  0.00  0.00     0.052 C 
BRANCH  29  30
HETATM   30  C   UNK N   1      15.148  20.179   4.431  0.00  0.00    -0.057 A 
HETATM   31  C   UNK N   1      14.966  20.383   3.055  0.00  0.00     0.007 A 
HETATM   32  C   UNK N   1      14.872  19.285   2.193  0.00  0.00     0.001 A 
HETATM   33  C   UNK N   1      14.952  17.984   2.702  0.00  0.00     0.000 A 
HETATM   34  C   UNK N   1      15.135  17.781   4.073  0.00  0.00     0.001 A 
HETATM   35  C   UNK N   1      15.232  18.876   4.936  0.00  0.00     0.007 A 
ENDBRANCH  29  30
ENDBRANCH  28  29
BRANCH  28  36
HETATM   36  C   UNK N   1      14.822  21.278   7.837  0.00  0.00     0.222 C 
HETATM   37  O   UNK N   1      14.273  21.827   8.782  0.00  0.00    -0.273 OA
HETATM   38  N   UNK N   1      16.090  20.812   7.953  0.00  0.00    -0.350 N 
HETATM   39  H   UNK N   1      16.484  20.293   7.215  0.00  0.00     0.163 HD
BRANCH  38  40
HETATM   40  C   UNK N   1      16.873  21.063   9.143  0.00  0.00     0.147 C 
HETATM   41  C   UNK N   1      18.263  21.668   8.794  0.00  0.00     0.149 C 
HETATM   42  C   UNK N   1      19.283  21.008   9.742  0.00  0.00     0.073 C 
HETATM   43  C   UNK N   1      18.550  19.824  10.233  0.00  0.00    -0.047 A 
HETATM   44  C   UNK N   1      19.081  18.798  11.015  0.00  0.00     0.008 A 
HETATM   45  C   UNK N   1      17.227  19.843   9.892  0.00  0.00    -0.027 A 
HETATM   46  C   UNK N   1      18.230  17.768  11.443  0.00  0.00     0.001 A 
HETATM   47  C   UNK N   1      16.866  17.791  11.097  0.00  0.00     0.001 A 
HETATM   48  C   UNK N   1      16.353  18.844  10.324  0.00  0.00     0.010 A 
BRANCH  41  49
HETATM   49  O   UNK N   1      18.633  21.328   7.488  0.00  0.00    -0.393 OA
HETATM   50  H   UNK N   1      18.015  21.734   6.860  0.00  0.00     0.210 HD
ENDBRANCH  41  49
ENDBRANCH  38  40
ENDBRANCH  28  36
ENDBRANCH  27  28
ENDBRANCH   1  27
TORSDOF 14
ENDMDL
MODEL 5
REMARK VINA RESULT:      -9.8      2.048      6.040
REMARK  14 active torsions:
REMARK  status: ('A' for Active; 'I' for Inactive)
REMARK    1  A    between atoms: N_2  and  C_41 
REMARK    2  A    between atoms: C_4  and  C_7 
REMARK    3  A    between atoms: N_5  and  C_10 
REMARK       I    between atoms: N_5  and  C_7 
REMARK    4  A    between atoms: O_6  and  C_21 
REMARK    5  A    between atoms: N_8  and  C_20 
REMARK    6  A    between atoms: N_11  and  C_32 
REMARK       I    between atoms: N_11  and  C_31 
REMARK    7  A    between atoms: O_12  and  C_33 
REMARK    8  A    between atoms: C_20  and  C_21 
REMARK    9  A    between atoms: C_21  and  C_22 
REMARK   10  A    between atoms: C_22  and  C_23 
REMARK   11  A    between atoms: C_23  and  C_24 
REMARK   12  A    between atoms: C_23  and  C_31 
REMARK   13  A    between atoms: C_24  and  C_25 
REMARK   14  A    between atoms: C_41  and  C_42 
ROOT
HETATM    1  C   UNK N   1      14.712  22.166   5.115  0.00  0.00     0.147 C 
ENDROOT
BRANCH   1   2
HETATM    2  C   UNK N   1      13.441  22.152   5.959  0.00  0.00     0.305 C 
BRANCH   2   3
HETATM    3  N   UNK N   1      13.056  23.509   6.339  0.00  0.00     0.108 N 
HETATM    4  C   UNK N   1      11.597  23.683   6.208  0.00  0.00     0.342 C 
HETATM    5  C   UNK N   1      11.197  25.062   6.737  0.00  0.00     0.318 C 
HETATM    6  N   UNK N   1      11.542  25.171   8.154  0.00  0.00     0.097 N 
HETATM    7  C   UNK N   1      12.991  25.021   8.282  0.00  0.00     0.303 C 
HETATM    8  C   UNK N   1      13.424  23.654   7.750  0.00  0.00     0.303 C 
BRANCH   4   9
HETATM    9  C   UNK N   1      11.135  23.575   4.785  0.00  0.00     0.253 C 
HETATM   10  O   UNK N   1      11.898  23.858   3.870  0.00  0.00    -0.271 OA
HETATM   11  N   UNK N   1       9.848  23.220   4.532  0.00  0.00    -0.351 N 
HETATM   12  H   UNK N   1       9.270  23.016   5.303  0.00  0.00     0.163 HD
BRANCH  11  13
HETATM   13  C   UNK N   1       9.265  23.124   3.207  0.00  0.00     0.022 C 
HETATM   14  C   UNK N   1       7.757  23.088   3.343  0.00  0.00     0.037 C 
HETATM   15  C   UNK N   1       9.720  21.851   2.518  0.00  0.00     0.037 C 
HETATM   16  C   UNK N   1       9.635  24.331   2.360  0.00  0.00     0.037 C 
ENDBRANCH  11  13
ENDBRANCH   4   9
BRANCH   6  17
HETATM   17  C   UNK N   1      11.216  26.524   8.592  0.00  0.00     0.312 C 
BRANCH  17  18
HETATM   18  C   UNK N   1       9.773  26.850   8.365  0.00  0.00    -0.015 A 
HETATM   19  C   UNK N   1       8.767  25.940   8.708  0.00  0.00     0.096 A 
HETATM   20  N   UNK N   1       7.459  26.261   8.507  0.00  0.00    -0.375 N 
HETATM   21  C   UNK N   1       7.095  27.459   7.976  0.00  0.00     0.087 A 
ATOM     22  HN  UNK N   1       6.736  25.588   8.762  1.00  0.00     0.164 HD
HETATM   23  C   UNK N   1       8.071  28.395   7.622  0.00  0.00     0.018 A 
HETATM   24  C   UNK N   1       9.417  28.085   7.821  0.00  0.00     0.011 A 
ENDBRANCH  17  18
ENDBRANCH   6  17
ENDBRANCH   2   3
ENDBRANCH   1   2
BRANCH   1  25
HETATM   25  O   UNK N   1      14.822  23.409   4.490  0.00  0.00    -0.394 OA
HETATM   26  H   UNK N   1      15.390  23.329   3.708  0.00  0.00     0.210 HD
ENDBRANCH   1  25
BRANCH   1  27
HETATM   27  C   UNK N   1      15.918  21.946   6.022  0.00  0.00     0.047 C 
BRANCH  27  28
HETATM   28  C   UNK N   1      15.970  20.551   6.646  0.00  0.00     0.084 C 
BRANCH  28  29
HETATM   29  C   UNK N   1      17.141  19.782   6.020  0.00  0.00     0.052 C 
BRANCH  29  30
HETATM   30  C   UNK N   1      16.739  19.006   4.799  0.00  0.00    -0.057 A 
HETATM   31  C   UNK N   1      17.618  18.859   3.717  0.00  0.00     0.007 A 
HETATM   32  C   UNK N   1      17.208  18.169   2.571  0.00  0.00     0.001 A 
HETATM   33  C   UNK N   1      15.919  17.630   2.502  0.00  0.00     0.000 A 
HETATM   34  C   UNK N   1      15.043  17.774   3.581  0.00  0.00     0.001 A 
HETATM   35  C   UNK N   1      15.451  18.462   4.727  0.00  0.00     0.007 A 
ENDBRANCH  29  30
ENDBRANCH  28  29
BRANCH  28  36
HETATM   36  C   UNK N   1      16.133  20.598   8.143  0.00  0.00     0.222 C 
HETATM   37  O   UNK N   1      15.874  21.627   8.751  0.00  0.00    -0.273 OA
HETATM   38  N   UNK N   1      16.694  19.542   8.781  0.00  0.00    -0.350 N 
HETATM   39  H   UNK N   1      16.812  18.692   8.299  0.00  0.00     0.163 HD
BRANCH  38  40
HETATM   40  C   UNK N   1      17.123  19.644  10.159  0.00  0.00     0.147 C 
HETATM   41  C   UNK N   1      18.571  20.201  10.265  0.00  0.00     0.149 C 
HETATM   42  C   UNK N   1      19.270  19.406  11.385  0.00  0.00     0.073 C 
HETATM   43  C   UNK N   1      18.398  18.224  11.535  0.00  0.00    -0.047 A 
HETATM   44  C   UNK N   1      18.663  17.106  12.326  0.00  0.00     0.008 A 
HETATM   45  C   UNK N   1      17.222  18.345  10.849  0.00  0.00    -0.027 A 
HETATM   46  C   UNK N   1      17.699  16.089  12.398  0.00  0.00     0.001 A 
HETATM   47  C   UNK N   1      16.485  16.217  11.696  0.00  0.00     0.001 A 
HETATM   48  C   UNK N   1      16.236  17.360  10.923  0.00  0.00     0.010 A 
BRANCH  41  49
HETATM   49  O   UNK N   1      19.280  19.960   9.083  0.00  0.00    -0.393 OA
HETATM   50  H   UNK N   1      18.743  20.233   8.322  0.00  0.00     0.210 HD
ENDBRANCH  41  49
ENDBRANCH  38  40
ENDBRANCH  28  36
ENDBRANCH  27  28
ENDBRANCH   1  27
TORSDOF 14
ENDMDL
MODEL 6
REMARK VINA RESULT:      -9.6      1.969      9.861
REMARK  14 active torsions:
REMARK  status: ('A' for Active; 'I' for Inactive)
REMARK    1  A    between atoms: N_2  and  C_41 
REMARK    2  A    between atoms: C_4  and  C_7 
REMARK    3  A    between atoms: N_5  and  C_10 
REMARK       I    between atoms: N_5  and  C_7 
REMARK    4  A    between atoms: O_6  and  C_21 
REMARK    5  A    between atoms: N_8  and  C_20 
REMARK    6  A    between atoms: N_11  and  C_32 
REMARK       I    between atoms: N_11  and  C_31 
REMARK    7  A    between atoms: O_12  and  C_33 
REMARK    8  A    between atoms: C_20  and  C_21 
REMARK    9  A    between atoms: C_21  and  C_22 
REMARK   10  A    between atoms: C_22  and  C_23 
REMARK   11  A    between atoms: C_23  and  C_24 
REMARK   12  A    between atoms: C_23  and  C_31 
REMARK   13  A    between atoms: C_24  and  C_25 
REMARK   14  A    between atoms: C_41  and  C_42 
ROOT
HETATM    1  C   UNK N   1      13.222  24.463   5.200  0.00  0.00     0.147 C 
ENDROOT
BRANCH   1   2
HETATM    2  C   UNK N   1      13.146  22.955   5.424  0.00  0.00     0.305 C 
BRANCH   2   3
HETATM    3  N   UNK N   1      14.210  22.269   4.697  0.00  0.00     0.108 N 
HETATM    4  C   UNK N   1      14.793  21.200   5.530  0.00  0.00     0.342 C 
HETATM    5  C   UNK N   1      15.810  20.407   4.707  0.00  0.00     0.318 C 
HETATM    6  N   UNK N   1      15.146  19.780   3.565  0.00  0.00     0.097 N 
HETATM    7  C   UNK N   1      14.587  20.839   2.727  0.00  0.00     0.303 C 
HETATM    8  C   UNK N   1      13.573  21.659   3.526  0.00  0.00     0.303 C 
BRANCH   4   9
HETATM    9  C   UNK N   1      15.492  21.741   6.743  0.00  0.00     0.253 C 
HETATM   10  O   UNK N   1      15.889  22.900   6.756  0.00  0.00    -0.271 OA
HETATM   11  N   UNK N   1      15.731  20.913   7.793  0.00  0.00    -0.351 N 
HETATM   12  H   UNK N   1      15.404  19.986   7.728  0.00  0.00     0.163 HD
BRANCH  11  13
HETATM   13  C   UNK N   1      16.435  21.297   9.002  0.00  0.00     0.022 C 
HETATM   14  C   UNK N   1      16.414  20.129   9.967  0.00  0.00     0.037 C 
HETATM   15  C   UNK N   1      15.752  22.481   9.661  0.00  0.00     0.037 C 
HETATM   16  C   UNK N   1      17.886  21.637   8.703  0.00  0.00     0.037 C 
ENDBRANCH  11  13
ENDBRANCH   4   9
BRANCH   6  17
HETATM   17  C   UNK N   1      16.164  19.103   2.769  0.00  0.00     0.312 C 
BRANCH  17  18
HETATM   18  C   UNK N   1      16.979  18.158   3.596  0.00  0.00    -0.015 A 
HETATM   19  C   UNK N   1      16.387  17.386   4.601  0.00  0.00     0.096 A 
HETATM   20  N   UNK N   1      17.143  16.521   5.332  0.00  0.00    -0.375 N 
HETATM   21  C   UNK N   1      18.478  16.382   5.110  0.00  0.00     0.087 A 
ATOM     22  HN  UNK N   1      16.698  15.965   6.062  1.00  0.00     0.164 HD
HETATM   23  C   UNK N   1      19.105  17.135   4.114  0.00  0.00     0.018 A 
HETATM   24  C   UNK N   1      18.348  18.026   3.353  0.00  0.00     0.011 A 
ENDBRANCH  17  18
ENDBRANCH   6  17
ENDBRANCH   2   3
ENDBRANCH   1   2
BRANCH   1  25
HETATM   25  O   UNK N   1      14.486  24.778   4.701  0.00  0.00    -0.394 OA
HETATM   26  H   UNK N   1      14.434  25.593   4.177  0.00  0.00     0.210 HD
ENDBRANCH   1  25
BRANCH   1  27
HETATM   27  C   UNK N   1      12.159  24.873   4.186  0.00  0.00     0.047 C 
BRANCH  27  28
HETATM   28  C   UNK N   1      10.727  24.663   4.680  0.00  0.00     0.084 C 
BRANCH  28  29
HETATM   29  C   UNK N   1      10.163  26.019   5.127  0.00  0.00     0.052 C 
BRANCH  29  30
HETATM   30  C   UNK N   1       9.807  26.046   6.585  0.00  0.00    -0.057 A 
HETATM   31  C   UNK N   1       9.098  27.125   7.133  0.00  0.00     0.007 A 
HETATM   32  C   UNK N   1       8.813  27.151   8.502  0.00  0.00     0.001 A 
HETATM   33  C   UNK N   1       9.240  26.105   9.327  0.00  0.00     0.000 A 
HETATM   34  C   UNK N   1       9.944  25.028   8.781  0.00  0.00     0.001 A 
HETATM   35  C   UNK N   1      10.229  25.000   7.413  0.00  0.00     0.007 A 
ENDBRANCH  29  30
ENDBRANCH  28  29
BRANCH  28  36
HETATM   36  C   UNK N   1       9.838  24.064   3.622  0.00  0.00     0.222 C 
HETATM   37  O   UNK N   1      10.330  23.609   2.599  0.00  0.00    -0.273 OA
HETATM   38  N   UNK N   1       8.493  24.162   3.756  0.00  0.00    -0.350 N 
HETATM   39  H   UNK N   1       8.110  24.444   4.618  0.00  0.00     0.163 HD
BRANCH  38  40
HETATM   40  C   UNK N   1       7.608  23.856   2.653  0.00  0.00     0.147 C 
HETATM   41  C   UNK N   1       7.424  25.082   1.713  0.00  0.00     0.149 C 
HETATM   42  C   UNK N   1       5.939  25.104   1.300  0.00  0.00     0.073 C 
HETATM   43  C   UNK N   1       5.310  24.227   2.308  0.00  0.00    -0.047 A 
HETATM   44  C   UNK N   1       3.941  24.022   2.475  0.00  0.00     0.008 A 
HETATM   45  C   UNK N   1       6.226  23.550   3.065  0.00  0.00    -0.027 A 
HETATM   46  C   UNK N   1       3.510  23.111   3.451  0.00  0.00     0.001 A 
HETATM   47  C   UNK N   1       4.454  22.409   4.225  0.00  0.00     0.001 A 
HETATM   48  C   UNK N   1       5.826  22.619   4.024  0.00  0.00     0.010 A 
BRANCH  41  49
HETATM   49  O   UNK N   1       7.679  26.273   2.402  0.00  0.00    -0.393 OA
HETATM   50  H   UNK N   1       7.076  26.965   2.087  0.00  0.00     0.210 HD
ENDBRANCH  41  49
ENDBRANCH  38  40
ENDBRANCH  28  36
ENDBRANCH  27  28
ENDBRANCH   1  27
TORSDOF 14
ENDMDL
MODEL 7
REMARK VINA RESULT:      -9.6      2.288     10.668
REMARK  14 active torsions:
REMARK  status: ('A' for Active; 'I' for Inactive)
REMARK    1  A    between atoms: N_2  and  C_41 
REMARK    2  A    between atoms: C_4  and  C_7 
REMARK    3  A    between atoms: N_5  and  C_10 
REMARK       I    between atoms: N_5  and  C_7 
REMARK    4  A    between atoms: O_6  and  C_21 
REMARK    5  A    between atoms: N_8  and  C_20 
REMARK    6  A    between atoms: N_11  and  C_32 
REMARK       I    between atoms: N_11  and  C_31 
REMARK    7  A    between atoms: O_12  and  C_33 
REMARK    8  A    between atoms: C_20  and  C_21 
REMARK    9  A    between atoms: C_21  and  C_22 
REMARK   10  A    between atoms: C_22  and  C_23 
REMARK   11  A    between atoms: C_23  and  C_24 
REMARK   12  A    between atoms: C_23  and  C_31 
REMARK   13  A    between atoms: C_24  and  C_25 
REMARK   14  A    between atoms: C_41  and  C_42 
ROOT
HETATM    1  C   UNK N   1      14.234  22.760   7.122  0.00  0.00     0.147 C 
ENDROOT
BRANCH   1   2
HETATM    2  C   UNK N   1      15.698  22.346   7.238  0.00  0.00     0.305 C 
BRANCH   2   3
HETATM    3  N   UNK N   1      15.827  21.107   8.001  0.00  0.00     0.108 N 
HETATM    4  C   UNK N   1      17.056  20.391   7.611  0.00  0.00     0.342 C 
HETATM    5  C   UNK N   1      17.244  19.169   8.512  0.00  0.00     0.318 C 
HETATM    6  N   UNK N   1      17.388  19.593   9.904  0.00  0.00     0.097 N 
HETATM    7  C   UNK N   1      16.162  20.283  10.298  0.00  0.00     0.303 C 
HETATM    8  C   UNK N   1      15.939  21.506   9.407  0.00  0.00     0.303 C 
BRANCH   4   9
HETATM    9  C   UNK N   1      17.015  19.921   6.187  0.00  0.00     0.253 C 
HETATM   10  O   UNK N   1      17.859  20.309   5.388  0.00  0.00    -0.271 OA
HETATM   11  N   UNK N   1      15.997  19.116   5.785  0.00  0.00    -0.351 N 
HETATM   12  H   UNK N   1      15.335  18.843   6.461  0.00  0.00     0.163 HD
BRANCH  11  13
HETATM   13  C   UNK N   1      15.816  18.630   4.430  0.00  0.00     0.022 C 
HETATM   14  C   UNK N   1      14.918  17.411   4.468  0.00  0.00     0.037 C 
HETATM   15  C   UNK N   1      17.150  18.230   3.826  0.00  0.00     0.037 C 
HETATM   16  C   UNK N   1      15.149  19.682   3.558  0.00  0.00     0.037 C 
ENDBRANCH  11  13
ENDBRANCH   4   9
BRANCH   6  17
HETATM   17  C   UNK N   1      17.485  18.395  10.731  0.00  0.00     0.312 C 
BRANCH  17  18
HETATM   18  C   UNK N   1      18.750  18.373  11.531  0.00  0.00    -0.015 A 
HETATM   19  C   UNK N   1      19.664  17.321  11.404  0.00  0.00     0.096 A 
HETATM   20  N   UNK N   1      20.816  17.327  12.131  0.00  0.00    -0.375 N 
HETATM   21  C   UNK N   1      21.110  18.341  12.988  0.00  0.00     0.087 A 
ATOM     22  HN  UNK N   1      21.473  16.553  12.028  1.00  0.00     0.164 HD
HETATM   23  C   UNK N   1      20.223  19.410  13.141  0.00  0.00     0.018 A 
HETATM   24  C   UNK N   1      19.038  19.423  12.405  0.00  0.00     0.011 A 
ENDBRANCH  17  18
ENDBRANCH   6  17
ENDBRANCH   2   3
ENDBRANCH   1   2
BRANCH   1  25
HETATM   25  O   UNK N   1      13.435  21.719   7.596  0.00  0.00    -0.394 OA
HETATM   26  H   UNK N   1      13.595  21.594   8.545  0.00  0.00     0.210 HD
ENDBRANCH   1  25
BRANCH   1  27
HETATM   27  C   UNK N   1      13.997  24.007   7.966  0.00  0.00     0.047 C 
BRANCH  27  28
HETATM   28  C   UNK N   1      12.587  24.584   7.825  0.00  0.00     0.084 C 
BRANCH  28  29
HETATM   29  C   UNK N   1      12.475  25.819   8.729  0.00  0.00     0.052 C 
BRANCH  29  30
HETATM   30  C   UNK N   1      11.063  26.311   8.866  0.00  0.00    -0.057 A 
HETATM   31  C   UNK N   1      10.752  27.666   8.684  0.00  0.00     0.007 A 
HETATM   32  C   UNK N   1       9.437  28.111   8.857  0.00  0.00     0.001 A 
HETATM   33  C   UNK N   1       8.433  27.206   9.217  0.00  0.00     0.000 A 
HETATM   34  C   UNK N   1       8.741  25.855   9.397  0.00  0.00     0.001 A 
HETATM   35  C   UNK N   1      10.054  25.408   9.222  0.00  0.00     0.007 A 
ENDBRANCH  29  30
ENDBRANCH  28  29
BRANCH  28  36
HETATM   36  C   UNK N   1      12.262  24.962   6.404  0.00  0.00     0.222 C 
HETATM   37  O   UNK N   1      12.943  25.798   5.825  0.00  0.00    -0.273 OA
HETATM   38  N   UNK N   1      11.136  24.472   5.830  0.00  0.00    -0.350 N 
HETATM   39  H   UNK N   1      10.650  23.736   6.267  0.00  0.00     0.163 HD
BRANCH  38  40
HETATM   40  C   UNK N   1      10.636  25.012   4.584  0.00  0.00     0.147 C 
HETATM   41  C   UNK N   1       9.473  26.017   4.825  0.00  0.00     0.149 C 
HETATM   42  C   UNK N   1       8.432  25.762   3.717  0.00  0.00     0.073 C 
HETATM   43  C   UNK N   1       8.815  24.427   3.215  0.00  0.00    -0.047 A 
HETATM   44  C   UNK N   1       8.097  23.661   2.296  0.00  0.00     0.008 A 
HETATM   45  C   UNK N   1      10.019  24.004   3.703  0.00  0.00    -0.027 A 
HETATM   46  C   UNK N   1       8.630  22.431   1.883  0.00  0.00     0.001 A 
HETATM   47  C   UNK N   1       9.874  21.999   2.381  0.00  0.00     0.001 A 
HETATM   48  C   UNK N   1      10.585  22.797   3.290  0.00  0.00     0.010 A 
BRANCH  41  49
HETATM   49  O   UNK N   1       8.846  25.760   6.049  0.00  0.00    -0.393 OA
HETATM   50  H   UNK N   1       8.114  26.384   6.175  0.00  0.00     0.210 HD
ENDBRANCH  41  49
ENDBRANCH  38  40
ENDBRANCH  28  36
ENDBRANCH  27  28
ENDBRANCH   1  27
TORSDOF 14
ENDMDL
MODEL 8
REMARK VINA RESULT:      -8.9      1.821      2.914
REMARK  14 active torsions:
REMARK  status: ('A' for Active; 'I' for Inactive)
REMARK    1  A    between atoms: N_2  and  C_41 
REMARK    2  A    between atoms: C_4  and  C_7 
REMARK    3  A    between atoms: N_5  and  C_10 
REMARK       I    between atoms: N_5  and  C_7 
REMARK    4  A    between atoms: O_6  and  C_21 
REMARK    5  A    between atoms: N_8  and  C_20 
REMARK    6  A    between atoms: N_11  and  C_32 
REMARK       I    between atoms: N_11  and  C_31 
REMARK    7  A    between atoms: O_12  and  C_33 
REMARK    8  A    between atoms: C_20  and  C_21 
REMARK    9  A    between atoms: C_21  and  C_22 
REMARK   10  A    between atoms: C_22  and  C_23 
REMARK   11  A    between atoms: C_23  and  C_24 
REMARK   12  A    between atoms: C_23  and  C_31 
REMARK   13  A    between atoms: C_24  and  C_25 
REMARK   14  A    between atoms: C_41  and  C_42 
ROOT
HETATM    1  C   UNK N   1      11.627  23.241   3.719  0.00  0.00     0.147 C 
ENDROOT
BRANCH   1   2
HETATM    2  C   UNK N   1      10.821  23.783   4.896  0.00  0.00     0.305 C 
BRANCH   2   3
HETATM    3  N   UNK N   1       9.423  23.979   4.519  0.00  0.00     0.108 N 
HETATM    4  C   UNK N   1       9.121  25.419   4.405  0.00  0.00     0.342 C 
HETATM    5  C   UNK N   1       7.695  25.601   3.880  0.00  0.00     0.318 C 
HETATM    6  N   UNK N   1       7.574  25.006   2.550  0.00  0.00     0.097 N 
HETATM    7  C   UNK N   1       7.852  23.576   2.665  0.00  0.00     0.303 C 
HETATM    8  C   UNK N   1       9.268  23.359   3.200  0.00  0.00     0.303 C 
BRANCH   4   9
HETATM    9  C   UNK N   1       9.230  26.129   5.722  0.00  0.00     0.253 C 
HETATM   10  O   UNK N   1       9.556  27.310   5.756  0.00  0.00    -0.271 OA
HETATM   11  N   UNK N   1       9.024  25.432   6.870  0.00  0.00    -0.351 N 
HETATM   12  H   UNK N   1       8.777  24.482   6.789  0.00  0.00     0.163 HD
BRANCH  11  13
HETATM   13  C   UNK N   1       9.143  25.987   8.204  0.00  0.00     0.022 C 
HETATM   14  C   UNK N   1       8.074  27.044   8.387  0.00  0.00     0.037 C 
HETATM   15  C   UNK N   1      10.502  26.636   8.391  0.00  0.00     0.037 C 
HETATM   16  C   UNK N   1       8.933  24.915   9.262  0.00  0.00     0.037 C 
ENDBRANCH  11  13
ENDBRANCH   4   9
BRANCH   6  17
HETATM   17  C   UNK N   1       6.184  25.135   2.125  0.00  0.00     0.312 C 
BRANCH  17  18
HETATM   18  C   UNK N   1       5.239  25.058   3.283  0.00  0.00    -0.015 A 
HETATM   19  C   UNK N   1       4.868  23.824   3.830  0.00  0.00     0.096 A 
HETATM   20  N   UNK N   1       4.019  23.776   4.893  0.00  0.00    -0.375 N 
HETATM   21  C   UNK N   1       3.512  24.909   5.449  0.00  0.00     0.087 A 
ATOM     22  HN  UNK N   1       3.757  22.869   5.281  1.00  0.00     0.164 HD
HETATM   23  C   UNK N   1       3.859  26.160   4.932  0.00  0.00     0.018 A 
HETATM   24  C   UNK N   1       4.729  26.231   3.844  0.00  0.00     0.011 A 
ENDBRANCH  17  18
ENDBRANCH   6  17
ENDBRANCH   2   3
ENDBRANCH   1   2
BRANCH   1  25
HETATM   25  O   UNK N   1      12.510  24.232   3.286  0.00  0.00    -0.394 OA
HETATM   26  H   UNK N   1      12.972  23.928   2.489  0.00  0.00     0.210 HD
ENDBRANCH   1  25
BRANCH   1  27
HETATM   27  C   UNK N   1      12.419  22.020   4.174  0.00  0.00     0.047 C 
BRANCH  27  28
HETATM   28  C   UNK N   1      13.641  22.364   5.027  0.00  0.00     0.084 C 
BRANCH  28  29
HETATM   29  C   UNK N   1      13.447  21.756   6.423  0.00  0.00     0.052 C 
BRANCH  29  30
HETATM   30  C   UNK N   1      14.603  22.030   7.341  0.00  0.00    -0.057 A 
HETATM   31  C   UNK N   1      14.975  23.344   7.659  0.00  0.00     0.007 A 
HETATM   32  C   UNK N   1      16.082  23.578   8.482  0.00  0.00     0.001 A 
HETATM   33  C   UNK N   1      16.822  22.502   8.983  0.00  0.00     0.000 A 
HETATM   34  C   UNK N   1      16.451  21.192   8.669  0.00  0.00     0.001 A 
HETATM   35  C   UNK N   1      15.344  20.956   7.848  0.00  0.00     0.007 A 
ENDBRANCH  29  30
ENDBRANCH  28  29
BRANCH  28  36
HETATM   36  C   UNK N   1      14.923  21.854   4.424  0.00  0.00     0.222 C 
HETATM   37  O   UNK N   1      15.756  22.646   4.004  0.00  0.00    -0.273 OA
HETATM   38  N   UNK N   1      15.078  20.522   4.227  0.00  0.00    -0.350 N 
HETATM   39  H   UNK N   1      14.448  19.894   4.648  0.00  0.00     0.163 HD
BRANCH  38  40
HETATM   40  C   UNK N   1      16.155  20.007   3.410  0.00  0.00     0.147 C 
HETATM   41  C   UNK N   1      15.615  19.145   2.233  0.00  0.00     0.149 C 
HETATM   42  C   UNK N   1      16.569  17.943   2.091  0.00  0.00     0.073 C 
HETATM   43  C   UNK N   1      17.284  17.943   3.384  0.00  0.00    -0.047 A 
HETATM   44  C   UNK N   1      18.166  16.960   3.832  0.00  0.00     0.008 A 
HETATM   45  C   UNK N   1      17.046  19.070   4.119  0.00  0.00    -0.027 A 
HETATM   46  C   UNK N   1      18.804  17.141   5.068  0.00  0.00     0.001 A 
HETATM   47  C   UNK N   1      18.564  18.305   5.822  0.00  0.00     0.001 A 
HETATM   48  C   UNK N   1      17.686  19.288   5.340  0.00  0.00     0.010 A 
BRANCH  41  49
HETATM   49  O   UNK N   1      14.349  18.634   2.538  0.00  0.00    -0.393 OA
HETATM   50  H   UNK N   1      13.958  18.239   1.742  0.00  0.00     0.210 HD
ENDBRANCH  41  49
ENDBRANCH  38  40
ENDBRANCH  28  36
ENDBRANCH  27  28
ENDBRANCH   1  27
TORSDOF 14
ENDMDL
MODEL 9
REMARK VINA RESULT:      -8.9      2.362     10.699
REMARK  14 active torsions:
REMARK  status: ('A' for Active; 'I' for Inactive)
REMARK    1  A    between atoms: N_2  and  C_41 
REMARK    2  A    between atoms: C_4  and  C_7 
REMARK    3  A    between atoms: N_5  and  C_10 
REMARK       I    between atoms: N_5  and  C_7 
REMARK    4  A    between atoms: O_6  and  C_21 
REMARK    5  A    between atoms: N_8  and  C_20 
REMARK    6  A    between atoms: N_11  and  C_32 
REMARK       I    between atoms: N_11  and  C_31 
REMARK    7  A    between atoms: O_12  and  C_33 
REMARK    8  A    between atoms: C_20  and  C_21 
REMARK    9  A    between atoms: C_21  and  C_22 
REMARK   10  A    between atoms: C_22  and  C_23 
REMARK   11  A    between atoms: C_23  and  C_24 
REMARK   12  A    between atoms: C_23  and  C_31 
REMARK   13  A    between atoms: C_24  and  C_25 
REMARK   14  A    between atoms: C_41  and  C_42 
ROOT
HETATM    1  C   UNK N   1      14.437  21.635   4.125  0.00  0.00     0.147 C 
ENDROOT
BRANCH   1   2
HETATM    2  C   UNK N   1      14.579  20.120   4.236  0.00  0.00     0.305 C 
BRANCH   2   3
HETATM    3  N   UNK N   1      15.982  19.723   4.144  0.00  0.00     0.108 N 
HETATM    4  C   UNK N   1      16.454  19.208   5.443  0.00  0.00     0.342 C 
HETATM    5  C   UNK N   1      17.880  18.673   5.293  0.00  0.00     0.318 C 
HETATM    6  N   UNK N   1      17.900  17.570   4.333  0.00  0.00     0.097 N 
HETATM    7  C   UNK N   1      17.453  18.084   3.040  0.00  0.00     0.303 C 
HETATM    8  C   UNK N   1      16.032  18.638   3.160  0.00  0.00     0.303 C 
BRANCH   4   9
HETATM    9  C   UNK N   1      16.460  20.265   6.507  0.00  0.00     0.253 C 
HETATM   10  O   UNK N   1      16.643  21.438   6.205  0.00  0.00    -0.271 OA
HETATM   11  N   UNK N   1      16.323  19.896   7.807  0.00  0.00    -0.351 N 
HETATM   12  H   UNK N   1      16.192  18.939   8.000  0.00  0.00     0.163 HD
BRANCH  11  13
HETATM   13  C   UNK N   1      16.356  20.812   8.932  0.00  0.00     0.022 C 
HETATM   14  C   UNK N   1      16.413  20.005  10.213  0.00  0.00     0.037 C 
HETATM   15  C   UNK N   1      15.105  21.670   8.956  0.00  0.00     0.037 C 
HETATM   16  C   UNK N   1      17.590  21.698   8.876  0.00  0.00     0.037 C 
ENDBRANCH  11  13
ENDBRANCH   4   9
BRANCH   6  17
HETATM   17  C   UNK N   1      19.286  17.146   4.165  0.00  0.00     0.312 C 
BRANCH  17  18
HETATM   18  C   UNK N   1      19.637  16.016   5.081  0.00  0.00    -0.015 A 
HETATM   19  C   UNK N   1      20.941  15.510   5.133  0.00  0.00     0.096 A 
HETATM   20  N   UNK N   1      21.243  14.491   5.984  0.00  0.00    -0.375 N 
HETATM   21  C   UNK N   1      20.301  13.941   6.798  0.00  0.00     0.087 A 
ATOM     22  HN  UNK N   1      22.197  14.132   6.012  1.00  0.00     0.164 HD
HETATM   23  C   UNK N   1      18.989  14.421   6.775  0.00  0.00     0.018 A 
HETATM   24  C   UNK N   1      18.659  15.465   5.911  0.00  0.00     0.011 A 
ENDBRANCH  17  18
ENDBRANCH   6  17
ENDBRANCH   2   3
ENDBRANCH   1   2
BRANCH   1  25
HETATM   25  O   UNK N   1      14.270  21.973   2.781  0.00  0.00    -0.394 OA
HETATM   26  H   UNK N   1      15.137  22.142   2.380  0.00  0.00     0.210 HD
ENDBRANCH   1  25
BRANCH   1  27
HETATM   27  C   UNK N   1      13.214  22.083   4.917  0.00  0.00     0.047 C 
BRANCH  27  28
HETATM   28  C   UNK N   1      12.331  23.083   4.168  0.00  0.00     0.084 C 
BRANCH  28  29
HETATM   29  C   UNK N   1      10.905  22.518   4.103  0.00  0.00     0.052 C 
BRANCH  29  30
HETATM   30  C   UNK N   1       9.944  23.449   3.423  0.00  0.00    -0.057 A 
HETATM   31  C   UNK N   1      10.356  24.252   2.350  0.00  0.00     0.007 A 
HETATM   32  C   UNK N   1       9.455  25.144   1.757  0.00  0.00     0.001 A 
HETATM   33  C   UNK N   1       8.145  25.240   2.238  0.00  0.00     0.000 A 
HETATM   34  C   UNK N   1       7.733  24.438   3.306  0.00  0.00     0.001 A 
HETATM   35  C   UNK N   1       8.630  23.546   3.898  0.00  0.00     0.007 A 
ENDBRANCH  29  30
ENDBRANCH  28  29
BRANCH  28  36
HETATM   36  C   UNK N   1      12.313  24.437   4.826  0.00  0.00     0.222 C 
HETATM   37  O   UNK N   1      13.150  25.276   4.519  0.00  0.00    -0.273 OA
HETATM   38  N   UNK N   1      11.455  24.664   5.851  0.00  0.00    -0.350 N 
HETATM   39  H   UNK N   1      10.730  24.021   6.027  0.00  0.00     0.163 HD
BRANCH  38  40
HETATM   40  C   UNK N   1      11.584  25.835   6.690  0.00  0.00     0.147 C 
HETATM   41  C   UNK N   1      12.448  25.541   7.950  0.00  0.00     0.149 C 
HETATM   42  C   UNK N   1      11.777  26.277   9.126  0.00  0.00     0.073 C 
HETATM   43  C   UNK N   1      10.424  26.555   8.605  0.00  0.00    -0.047 A 
HETATM   44  C   UNK N   1       9.357  27.081   9.335  0.00  0.00     0.008 A 
HETATM   45  C   UNK N   1      10.310  26.298   7.268  0.00  0.00    -0.027 A 
HETATM   46  C   UNK N   1       8.148  27.335   8.671  0.00  0.00     0.001 A 
HETATM   47  C   UNK N   1       8.033  27.076   7.291  0.00  0.00     0.001 A 
HETATM   48  C   UNK N   1       9.127  26.565   6.577  0.00  0.00     0.010 A 
BRANCH  41  49
HETATM   49  O   UNK N   1      12.428  24.175   8.252  0.00  0.00    -0.393 OA
HETATM   50  H   UNK N   1      11.542  23.818   8.082  0.00  0.00     0.210 HD
ENDBRANCH  41  49
ENDBRANCH  38  40
ENDBRANCH  28  36
ENDBRANCH  27  28
ENDBRANCH   1  27
TORSDOF 14
ENDMDL
